<?xml version="1.0" encoding="UTF-8"?>

<net version="1.9" junctionCornerDetail="5" limitTurnSpeed="5.50" xmlns:xsi="http://www.w3.org/2001/XMLSchema-instance" xsi:noNamespaceSchemaLocation="http://sumo.dlr.de/xsd/net_file.xsd">

    <location netOffset="0.00,0.00" convBoundary="-298.05,-162.78,284.04,132.48" origBoundary="-10000000000.00,-10000000000.00,10000000000.00,10000000000.00" projParameter="!"/>

    <edge id=":J0_0" function="internal">
        <lane id=":J0_0_0" index="0" speed="10.00" length="17.11" shape="-107.19,84.11 -107.92,80.10 -108.49,75.66 -108.85,71.19 -108.95,67.12"/>
    </edge>
    <edge id=":J0_1" function="internal">
        <lane id=":J0_1_0" index="0" speed="10.00" length="2.03" shape="-107.19,84.11 -106.79,82.13"/>
    </edge>
    <edge id=":J0_2" function="internal">
        <lane id=":J0_2_0" index="0" speed="10.00" length="1.82" shape="-107.19,84.11 -106.73,82.35"/>
    </edge>
    <edge id=":J0_12" function="internal">
        <lane id=":J0_12_0" index="0" speed="10.00" length="33.70" shape="-106.79,82.13 -106.22,79.27 -101.16,74.71 -91.99,70.45 -78.71,66.48"/>
    </edge>
    <edge id=":J0_13" function="internal">
        <lane id=":J0_13_0" index="0" speed="10.00" length="32.90" shape="-106.73,82.35 -105.80,78.83 -99.59,75.66 -89.73,74.11 -77.43,73.71"/>
    </edge>
    <edge id=":J0_3" function="internal">
        <lane id=":J0_3_0" index="0" speed="9.86" length="25.72" shape="-77.43,76.91 -88.19,77.27 -95.70,78.37 -99.94,80.19 -100.93,82.75"/>
    </edge>
    <edge id=":J0_4" function="internal">
        <lane id=":J0_4_0" index="0" speed="10.00" length="35.22" shape="-77.43,76.91 -91.28,76.29 -101.14,74.46 -107.03,71.40 -108.95,67.12"/>
    </edge>
    <edge id=":J0_5" function="internal">
        <lane id=":J0_5_0" index="0" speed="5.91" length="14.64" shape="-77.43,76.91 -80.89,75.48 -82.38,72.23 -81.72,68.71 -78.71,66.48"/>
    </edge>
    <edge id=":J0_6" function="internal">
        <lane id=":J0_6_0" index="0" speed="6.40" length="17.54" shape="-77.94,69.59 -84.10,71.39 -86.07,72.68 -83.85,73.45 -77.43,73.71"/>
    </edge>
    <edge id=":J0_7" function="internal">
        <lane id=":J0_7_0" index="0" speed="10.00" length="31.00" shape="-77.94,69.59 -89.93,73.04 -98.29,76.49 -103.00,79.96 -104.06,83.43"/>
    </edge>
    <edge id=":J0_8" function="internal">
        <lane id=":J0_8_0" index="0" speed="10.00" length="34.23" shape="-77.94,69.59 -89.87,72.17 -99.78,73.12 -106.51,71.69 -108.95,67.12"/>
    </edge>
    <edge id=":J0_9" function="internal">
        <lane id=":J0_9_0" index="0" speed="10.00" length="28.54" shape="-105.75,67.17 -104.09,69.40 -99.03,70.03 -90.57,69.06 -78.71,66.48"/>
    </edge>
    <edge id=":J0_10" function="internal">
        <lane id=":J0_10_0" index="0" speed="10.00" length="30.40" shape="-105.75,67.17 -104.01,70.03 -98.72,72.07 -89.86,73.30 -77.43,73.71"/>
    </edge>
    <edge id=":J0_11" function="internal">
        <lane id=":J0_11_0" index="0" speed="10.00" length="16.40" shape="-105.75,67.17 -105.76,70.69 -105.59,74.18 -105.07,78.22 -104.06,83.43"/>
    </edge>
    <edge id=":J1_0" function="internal">
        <lane id=":J1_0_0" index="0" speed="6.08" length="7.59" shape="83.02,72.30 82.67,74.35 81.75,75.80 80.27,76.68 78.22,76.97"/>
    </edge>
    <edge id=":J1_1" function="internal">
        <lane id=":J1_1_0" index="0" speed="3.91" length="2.53" shape="78.22,73.77 78.90,73.67 79.40,73.38 79.70,72.89 79.82,72.21"/>
    </edge>
    <edge id=":J10_0" function="internal">
        <lane id=":J10_0_0" index="0" speed="3.90" length="2.60" shape="192.85,-115.15 192.73,-115.85 192.42,-116.34 191.90,-116.63 191.19,-116.71"/>
    </edge>
    <edge id=":J10_1" function="internal">
        <lane id=":J10_1_0" index="0" speed="5.00" length="7.81" shape="191.08,-119.90 193.21,-119.68 194.75,-118.82 195.69,-117.34 196.05,-115.22"/>
    </edge>
    <edge id=":J11_0" function="internal">
        <lane id=":J11_0_0" index="0" speed="5.00" length="11.90" shape="90.71,-108.30 90.09,-110.77 88.38,-112.51 85.57,-113.53 81.66,-113.84"/>
    </edge>
    <edge id=":J11_1" function="internal">
        <lane id=":J11_1_0" index="0" speed="5.00" length="14.58" shape="90.71,-108.30 90.23,-122.88"/>
    </edge>
    <edge id=":J11_2" function="internal">
        <lane id=":J11_2_0" index="0" speed="5.00" length="14.22" shape="90.71,-108.30 91.17,-112.18 92.76,-114.97 95.48,-116.67 99.33,-117.29"/>
    </edge>
    <edge id=":J11_3" function="internal">
        <lane id=":J11_3_0" index="0" speed="5.00" length="9.03" shape="99.38,-114.09 96.94,-113.70 95.21,-112.62 94.20,-110.85 93.91,-108.39"/>
    </edge>
    <edge id=":J11_4" function="internal">
        <lane id=":J11_4_0" index="0" speed="5.00" length="17.73" shape="99.38,-114.09 81.66,-113.84"/>
    </edge>
    <edge id=":J11_5" function="internal">
        <lane id=":J11_5_0" index="0" speed="5.00" length="4.08" shape="99.38,-114.09 95.52,-114.59 95.36,-114.68"/>
    </edge>
    <edge id=":J11_12" function="internal">
        <lane id=":J11_12_0" index="0" speed="5.00" length="10.31" shape="95.36,-114.68 92.70,-116.21 90.94,-118.98 90.23,-122.88"/>
    </edge>
    <edge id=":J11_6" function="internal">
        <lane id=":J11_6_0" index="0" speed="5.00" length="9.32" shape="93.43,-123.01 93.89,-120.47 95.02,-118.67 96.84,-117.61 99.33,-117.29"/>
    </edge>
    <edge id=":J11_7" function="internal">
        <lane id=":J11_7_0" index="0" speed="5.00" length="14.63" shape="93.43,-123.01 93.91,-108.39"/>
    </edge>
    <edge id=":J11_8" function="internal">
        <lane id=":J11_8_0" index="0" speed="5.00" length="17.01" shape="93.43,-123.01 92.83,-119.05 90.67,-116.21 86.95,-114.47 81.66,-113.84"/>
    </edge>
    <edge id=":J11_9" function="internal">
        <lane id=":J11_9_0" index="0" speed="5.00" length="9.03" shape="81.62,-117.04 84.07,-117.42 85.79,-118.50 86.78,-120.28 87.03,-122.75"/>
    </edge>
    <edge id=":J11_10" function="internal">
        <lane id=":J11_10_0" index="0" speed="5.00" length="17.71" shape="81.62,-117.04 99.33,-117.29"/>
    </edge>
    <edge id=":J11_11" function="internal">
        <lane id=":J11_11_0" index="0" speed="5.00" length="5.58" shape="81.62,-117.04 86.91,-116.55 87.15,-116.45"/>
    </edge>
    <edge id=":J11_13" function="internal">
        <lane id=":J11_13_0" index="0" speed="5.00" length="11.40" shape="87.15,-116.45 90.73,-114.95 93.06,-112.23 93.91,-108.39"/>
    </edge>
    <edge id=":J12_0" function="internal">
        <lane id=":J12_0_0" index="0" speed="5.00" length="7.79" shape="53.83,-111.84 54.09,-113.96 54.96,-115.48 56.45,-116.41 58.57,-116.74"/>
    </edge>
    <edge id=":J12_1" function="internal">
        <lane id=":J12_1_0" index="0" speed="3.90" length="2.60" shape="58.61,-113.54 57.90,-113.43 57.41,-113.12 57.11,-112.61 57.03,-111.91"/>
    </edge>
    <edge id=":J13_0" function="internal">
        <lane id=":J13_0_0" index="0" speed="5.00" length="7.77" shape="59.80,-57.12 57.69,-57.37 56.16,-58.24 55.23,-59.72 54.88,-61.82"/>
    </edge>
    <edge id=":J13_1" function="internal">
        <lane id=":J13_1_0" index="0" speed="3.90" length="2.59" shape="58.08,-61.89 58.20,-61.19 58.51,-60.69 59.02,-60.40 59.72,-60.32"/>
    </edge>
    <edge id=":J14_0" function="internal">
        <lane id=":J14_0_0" index="0" speed="5.00" length="14.41" shape="100.79,-58.18 86.39,-57.81"/>
    </edge>
    <edge id=":J14_1" function="internal">
        <lane id=":J14_1_0" index="0" speed="5.00" length="4.07" shape="100.79,-58.18 96.93,-58.63 96.77,-58.72"/>
    </edge>
    <edge id=":J14_6" function="internal">
        <lane id=":J14_6_0" index="0" speed="5.00" length="10.13" shape="96.77,-58.72 94.14,-60.21 92.42,-62.91 91.77,-66.75"/>
    </edge>
    <edge id=":J14_2" function="internal">
        <lane id=":J14_2_0" index="0" speed="5.00" length="9.03" shape="94.97,-66.83 95.38,-64.39 96.47,-62.67 98.25,-61.67 100.71,-61.38"/>
    </edge>
    <edge id=":J14_3" function="internal">
        <lane id=":J14_3_0" index="0" speed="5.00" length="14.20" shape="94.97,-66.83 94.51,-62.97 92.94,-60.18 90.23,-58.45 86.39,-57.81"/>
    </edge>
    <edge id=":J14_4" function="internal">
        <lane id=":J14_4_0" index="0" speed="5.00" length="9.04" shape="86.31,-61.00 88.75,-61.42 90.48,-62.51 91.48,-64.29 91.77,-66.75"/>
    </edge>
    <edge id=":J14_5" function="internal">
        <lane id=":J14_5_0" index="0" speed="5.00" length="14.40" shape="86.31,-61.00 100.71,-61.38"/>
    </edge>
    <edge id=":J15_0" function="internal">
        <lane id=":J15_0_0" index="0" speed="6.57" length="9.12" shape="86.10,-145.77 85.65,-148.25 84.53,-149.99 82.74,-151.01 80.29,-151.30"/>
    </edge>
    <edge id=":J15_1" function="internal">
        <lane id=":J15_1_0" index="0" speed="8.66" length="16.89" shape="89.30,-145.90 89.63,-151.18 91.14,-154.99 93.82,-157.34 97.66,-158.22"/>
    </edge>
    <edge id=":J15_2" function="internal">
        <lane id=":J15_2_0" index="0" speed="6.49" length="9.03" shape="97.87,-151.82 95.43,-151.39 93.72,-150.28 92.74,-148.49 92.49,-146.03"/>
    </edge>
    <edge id=":J15_3" function="internal">
        <lane id=":J15_3_0" index="0" speed="20.00" length="17.58" shape="97.87,-151.82 80.29,-151.30"/>
        <lane id=":J15_3_1" index="1" speed="20.00" length="17.58" shape="97.77,-155.02 80.20,-154.50"/>
    </edge>
    <edge id=":J15_5" function="internal">
        <lane id=":J15_5_0" index="0" speed="20.00" length="17.54" shape="80.03,-160.90 97.56,-161.42"/>
        <lane id=":J15_5_1" index="1" speed="20.00" length="17.54" shape="80.12,-157.70 97.66,-158.22"/>
    </edge>
    <edge id=":J15_7" function="internal">
        <lane id=":J15_7_0" index="0" speed="9.30" length="4.90" shape="80.12,-157.70 84.98,-157.13"/>
    </edge>
    <edge id=":J15_8" function="internal">
        <lane id=":J15_8_0" index="0" speed="9.30" length="14.44" shape="84.98,-157.13 85.35,-157.09 89.15,-154.94 91.54,-151.26 92.49,-146.03"/>
    </edge>
    <edge id=":J16_0" function="internal">
        <lane id=":J16_0_0" index="0" speed="8.96" length="18.55" shape="277.24,-167.36 282.32,-166.80 285.94,-164.74 288.11,-161.18 288.81,-156.12"/>
        <lane id=":J16_0_1" index="1" speed="7.65" length="13.25" shape="277.35,-164.16 280.98,-163.76 283.56,-162.29 285.11,-159.75 285.61,-156.13"/>
    </edge>
    <edge id=":J16_2" function="internal">
        <lane id=":J16_2_0" index="0" speed="3.90" length="2.65" shape="279.21,-156.16 279.11,-156.88 278.80,-157.39 278.28,-157.68 277.56,-157.76"/>
        <lane id=":J16_2_1" index="1" speed="6.07" length="7.95" shape="282.41,-156.14 282.11,-158.31 281.18,-159.84 279.63,-160.72 277.45,-160.96"/>
    </edge>
    <edge id=":J17_0" function="internal">
        <lane id=":J17_0_0" index="0" speed="9.54" length="10.19" shape="288.14,2.53 287.86,5.14 287.04,7.47 285.69,9.54 283.79,11.35"/>
        <lane id=":J17_0_1" index="1" speed="8.14" length="7.28" shape="284.94,2.52 284.74,4.38 284.16,6.05 283.19,7.53 281.83,8.82"/>
    </edge>
    <edge id=":J17_2" function="internal">
        <lane id=":J17_2_0" index="0" speed="4.10" length="1.46" shape="277.92,3.75 278.19,3.49 278.39,3.20 278.50,2.87 278.54,2.49"/>
        <lane id=":J17_2_1" index="1" speed="6.44" length="4.37" shape="279.88,6.29 280.69,5.51 281.27,4.62 281.62,3.62 281.74,2.51"/>
    </edge>
    <edge id=":J18_0" function="internal">
        <lane id=":J18_0_0" index="0" speed="16.95" length="23.29" shape="180.20,91.38 174.81,95.21 169.93,97.73 164.66,99.25 158.12,100.10"/>
        <lane id=":J18_0_1" index="1" speed="16.95" length="23.29" shape="178.25,88.85 173.12,92.57 168.82,94.86 164.13,96.16 157.85,96.91"/>
    </edge>
    <edge id=":J18_2" function="internal">
        <lane id=":J18_2_0" index="0" speed="9.33" length="4.99" shape="178.25,88.85 173.86,91.23"/>
    </edge>
    <edge id=":J18_9" function="internal">
        <lane id=":J18_9_0" index="0" speed="9.33" length="16.47" shape="173.86,91.23 173.27,91.55 168.66,91.70 164.41,89.31 160.51,84.35"/>
    </edge>
    <edge id=":J18_3" function="internal">
        <lane id=":J18_3_0" index="0" speed="6.61" length="10.23" shape="166.01,81.08 167.93,83.59 169.96,84.88 172.09,84.94 174.33,83.78"/>
        <lane id=":J18_3_1" index="1" speed="8.08" length="15.84" shape="163.26,82.71 166.17,86.45 169.31,88.29 172.68,88.25 176.29,86.31"/>
    </edge>
    <edge id=":J18_5" function="internal">
        <lane id=":J18_5_0" index="0" speed="8.16" length="19.97" shape="163.26,82.71 165.86,88.52 165.82,92.82 163.15,95.62 157.85,96.91"/>
    </edge>
    <edge id=":J18_6" function="internal">
        <lane id=":J18_6_0" index="0" speed="5.74" length="9.18" shape="157.33,90.53 159.98,89.94 161.40,88.72 161.58,86.85 160.51,84.35"/>
    </edge>
    <edge id=":J18_7" function="internal">
        <lane id=":J18_7_0" index="0" speed="18.24" length="19.68" shape="157.33,90.53 162.82,89.95 166.54,88.97 169.91,87.09 174.33,83.78"/>
        <lane id=":J18_7_1" index="1" speed="19.11" length="19.68" shape="157.59,93.72 163.61,93.08 167.71,92.00 171.43,89.94 176.29,86.31"/>
    </edge>
    <edge id=":J19_0" function="internal">
        <lane id=":J19_0_0" index="0" speed="20.00" length="17.54" shape="-88.58,120.31 -106.02,121.86"/>
        <lane id=":J19_0_1" index="1" speed="20.00" length="17.54" shape="-88.84,117.12 -106.33,118.67"/>
    </edge>
    <edge id=":J19_2" function="internal">
        <lane id=":J19_2_0" index="0" speed="9.75" length="4.48" shape="-88.84,117.12 -93.31,116.80"/>
    </edge>
    <edge id=":J19_8" function="internal">
        <lane id=":J19_8_0" index="0" speed="9.75" length="14.93" shape="-93.31,116.80 -93.80,116.77 -97.71,114.81 -100.58,111.24 -102.41,106.07"/>
    </edge>
    <edge id=":J19_3" function="internal">
        <lane id=":J19_3_0" index="0" speed="7.17" length="10.06" shape="-96.15,104.71 -95.20,107.52 -93.75,109.45 -91.80,110.53 -89.36,110.74"/>
    </edge>
    <edge id=":J19_4" function="internal">
        <lane id=":J19_4_0" index="0" speed="8.48" length="17.54" shape="-99.28,105.39 -98.71,110.85 -99.70,114.88 -102.24,117.49 -106.33,118.67"/>
    </edge>
    <edge id=":J19_5" function="internal">
        <lane id=":J19_5_0" index="0" speed="6.27" length="9.04" shape="-106.95,112.30 -104.50,111.70 -102.92,110.46 -102.23,108.59 -102.41,106.07"/>
    </edge>
    <edge id=":J19_6" function="internal">
        <lane id=":J19_6_0" index="0" speed="20.00" length="17.63" shape="-106.95,112.30 -89.36,110.74"/>
        <lane id=":J19_6_1" index="1" speed="20.00" length="17.63" shape="-106.64,115.48 -89.10,113.93"/>
    </edge>
    <edge id=":J2_0" function="internal">
        <lane id=":J2_0_0" index="0" speed="6.07" length="7.88" shape="80.00,4.88 82.14,5.19 83.65,6.12 84.53,7.66 84.78,9.81"/>
    </edge>
    <edge id=":J2_1" function="internal">
        <lane id=":J2_1_0" index="0" speed="3.90" length="2.63" shape="81.58,9.72 81.50,9.01 81.20,8.49 80.70,8.18 79.98,8.08"/>
    </edge>
    <edge id=":J20_0" function="internal">
        <lane id=":J20_0_0" index="0" speed="20.00" length="0.11" shape="-90.06,-146.69 -90.10,-146.68"/>
        <lane id=":J20_0_1" index="1" speed="20.00" length="0.11" shape="-90.14,-149.88 -90.32,-149.88"/>
    </edge>
    <edge id=":J20_2" function="internal">
        <lane id=":J20_2_0" index="0" speed="20.00" length="0.38" shape="-90.77,-156.26 -90.32,-156.28"/>
        <lane id=":J20_2_1" index="1" speed="20.00" length="0.38" shape="-90.54,-153.07 -90.23,-153.08"/>
    </edge>
    <edge id=":J21_0" function="internal">
        <lane id=":J21_0_0" index="0" speed="20.00" length="0.34" shape="-287.83,-1.99 -287.88,-2.35"/>
        <lane id=":J21_0_1" index="1" speed="20.00" length="0.34" shape="-284.66,-2.40 -284.70,-2.71"/>
    </edge>
    <edge id=":J21_2" function="internal">
        <lane id=":J21_2_0" index="0" speed="20.00" length="0.24" shape="-278.34,-3.41 -278.31,-3.20"/>
        <lane id=":J21_2_1" index="1" speed="20.00" length="0.24" shape="-281.52,-3.06 -281.48,-2.80"/>
    </edge>
    <edge id=":J22_0" function="internal">
        <lane id=":J22_0_0" index="0" speed="8.97" length="17.68" shape="-259.34,136.66 -264.16,136.44 -267.80,134.75 -270.26,131.57 -271.53,126.92"/>
        <lane id=":J22_0_1" index="1" speed="7.66" length="12.63" shape="-259.65,133.48 -263.09,133.32 -265.69,132.11 -267.45,129.84 -268.36,126.52"/>
    </edge>
    <edge id=":J22_2" function="internal">
        <lane id=":J22_2_0" index="0" speed="3.91" length="2.53" shape="-262.01,125.71 -261.83,126.38 -261.47,126.83 -260.96,127.07 -260.27,127.10"/>
        <lane id=":J22_2_1" index="1" speed="6.08" length="7.58" shape="-265.18,126.11 -264.64,128.11 -263.58,129.47 -262.02,130.20 -259.96,130.29"/>
    </edge>
    <edge id=":J23_0" function="internal">
        <lane id=":J23_0_0" index="0" speed="8.96" length="18.61" shape="-302.08,-129.92 -301.92,-135.04 -300.14,-138.82 -296.74,-141.25 -291.73,-142.33"/>
        <lane id=":J23_0_1" index="1" speed="7.65" length="13.30" shape="-298.90,-130.27 -298.79,-133.93 -297.51,-136.63 -295.09,-138.37 -291.50,-139.14"/>
    </edge>
    <edge id=":J23_2" function="internal">
        <lane id=":J23_2_0" index="0" speed="3.90" length="2.66" shape="-291.06,-132.75 -291.78,-132.60 -292.26,-132.25 -292.52,-131.71 -292.54,-130.98"/>
        <lane id=":J23_2_1" index="1" speed="6.07" length="7.98" shape="-291.28,-135.95 -293.43,-135.48 -294.89,-134.44 -295.65,-132.82 -295.72,-130.63"/>
    </edge>
    <edge id=":J3_0" function="internal">
        <lane id=":J3_0_0" index="0" speed="3.90" length="2.56" shape="-103.26,7.44 -103.96,7.54 -104.45,7.83 -104.76,8.33 -104.87,9.02"/>
    </edge>
    <edge id=":J3_1" function="internal">
        <lane id=":J3_1_0" index="0" speed="6.08" length="7.68" shape="-108.07,8.97 -107.74,6.89 -106.83,5.41 -105.33,4.53 -103.25,4.24"/>
    </edge>
    <edge id=":J4_0" function="internal">
        <lane id=":J4_0_0" index="0" speed="11.95" length="0.39" shape="37.56,40.86 37.45,40.86 37.37,40.87 37.29,40.88 37.18,40.91"/>
    </edge>
    <edge id=":J4_1" function="internal">
        <lane id=":J4_1_0" index="0" speed="11.95" length="1.17" shape="36.40,37.80 36.74,37.72 36.98,37.68 37.21,37.66 37.56,37.66"/>
    </edge>
    <edge id=":J5_0" function="internal">
        <lane id=":J5_0_0" index="0" speed="8.81" length="10.28" shape="137.13,45.13 135.62,43.26 133.65,41.93 131.21,41.13 128.30,40.86"/>
    </edge>
    <edge id=":J5_1" function="internal">
        <lane id=":J5_1_0" index="0" speed="5.00" length="17.73" shape="137.13,45.13 135.55,41.33 134.56,36.76 134.06,32.06 133.92,27.86"/>
    </edge>
    <edge id=":J5_2" function="internal">
        <lane id=":J5_2_0" index="0" speed="5.00" length="17.11" shape="137.13,45.13 136.10,41.90 136.69,38.35 138.90,34.49 142.73,30.31"/>
    </edge>
    <edge id=":J5_3" function="internal">
        <lane id=":J5_3_0" index="0" speed="5.00" length="10.35" shape="144.91,32.65 142.89,34.97 141.84,37.28 141.75,39.58 142.63,41.86"/>
    </edge>
    <edge id=":J5_4" function="internal">
        <lane id=":J5_4_0" index="0" speed="9.45" length="18.81" shape="144.91,32.65 141.48,35.37 137.11,38.03 132.49,40.06 128.30,40.86"/>
    </edge>
    <edge id=":J5_5" function="internal">
        <lane id=":J5_5_0" index="0" speed="5.00" length="6.89" shape="144.91,32.65 140.09,36.21 139.20,36.31"/>
    </edge>
    <edge id=":J5_12" function="internal">
        <lane id=":J5_12_0" index="0" speed="5.00" length="12.03" shape="139.20,36.31 136.65,36.60 134.59,33.82 133.92,27.86"/>
    </edge>
    <edge id=":J5_6" function="internal">
        <lane id=":J5_6_0" index="0" speed="5.00" length="9.65" shape="137.12,27.87 137.46,30.91 138.51,32.33 140.27,32.13 142.73,30.31"/>
    </edge>
    <edge id=":J5_7" function="internal">
        <lane id=":J5_7_0" index="0" speed="5.00" length="16.18" shape="137.12,27.87 136.97,31.46 136.97,35.00 137.73,38.88 139.88,43.50"/>
    </edge>
    <edge id=":J5_8" function="internal">
        <lane id=":J5_8_0" index="0" speed="8.88" length="17.70" shape="137.12,27.87 136.56,33.55 134.90,37.61 132.15,40.05 128.30,40.86"/>
    </edge>
    <edge id=":J5_9" function="internal">
        <lane id=":J5_9_0" index="0" speed="7.58" length="12.61" shape="128.30,37.66 130.75,37.05 132.50,35.21 133.56,32.15 133.92,27.86"/>
    </edge>
    <edge id=":J5_10" function="internal">
        <lane id=":J5_10_0" index="0" speed="9.45" length="16.50" shape="128.30,37.66 132.15,36.99 136.02,35.27 139.63,32.90 142.73,30.31"/>
    </edge>
    <edge id=":J5_11" function="internal">
        <lane id=":J5_11_0" index="0" speed="9.45" length="2.41" shape="128.30,37.66 130.70,37.89"/>
    </edge>
    <edge id=":J5_13" function="internal">
        <lane id=":J5_13_0" index="0" speed="9.45" length="11.18" shape="130.70,37.89 132.06,38.02 135.24,39.12 137.85,40.94 139.88,43.50"/>
    </edge>
    <edge id=":J6_0" function="internal">
        <lane id=":J6_0_0" index="0" speed="5.00" length="9.19" shape="142.97,-59.22 140.51,-58.83 138.76,-57.73 137.70,-55.93 137.34,-53.42"/>
    </edge>
    <edge id=":J6_1" function="internal">
        <lane id=":J6_1_0" index="0" speed="5.00" length="14.47" shape="142.97,-59.22 128.51,-58.93"/>
    </edge>
    <edge id=":J6_2" function="internal">
        <lane id=":J6_2_0" index="0" speed="5.00" length="4.02" shape="142.97,-59.22 139.12,-59.72 139.01,-59.78"/>
    </edge>
    <edge id=":J6_12" function="internal">
        <lane id=":J6_12_0" index="0" speed="5.00" length="10.17" shape="139.01,-59.78 136.35,-61.32 134.65,-64.05 134.04,-67.88"/>
    </edge>
    <edge id=":J6_3" function="internal">
        <lane id=":J6_3_0" index="0" speed="5.00" length="9.03" shape="137.24,-67.94 137.63,-65.49 138.71,-63.76 140.47,-62.74 142.93,-62.42"/>
    </edge>
    <edge id=":J6_4" function="internal">
        <lane id=":J6_4_0" index="0" speed="5.00" length="14.52" shape="137.24,-67.94 137.34,-53.42"/>
    </edge>
    <edge id=":J6_5" function="internal">
        <lane id=":J6_5_0" index="0" speed="5.00" length="4.12" shape="137.24,-67.94 136.75,-64.08 136.63,-63.88"/>
    </edge>
    <edge id=":J6_13" function="internal">
        <lane id=":J6_13_0" index="0" speed="5.00" length="10.15" shape="136.63,-63.88 135.13,-61.30 132.38,-59.58 128.51,-58.93"/>
    </edge>
    <edge id=":J6_6" function="internal">
        <lane id=":J6_6_0" index="0" speed="5.00" length="9.15" shape="128.42,-62.12 130.92,-62.54 132.68,-63.64 133.72,-65.42 134.04,-67.88"/>
    </edge>
    <edge id=":J6_7" function="internal">
        <lane id=":J6_7_0" index="0" speed="5.00" length="14.51" shape="128.42,-62.12 142.93,-62.42"/>
    </edge>
    <edge id=":J6_8" function="internal">
        <lane id=":J6_8_0" index="0" speed="5.00" length="4.14" shape="128.42,-62.12 132.33,-61.67 132.51,-61.57"/>
    </edge>
    <edge id=":J6_14" function="internal">
        <lane id=":J6_14_0" index="0" speed="5.00" length="10.17" shape="132.51,-61.57 135.12,-60.07 136.79,-57.32 137.34,-53.42"/>
    </edge>
    <edge id=":J6_9" function="internal">
        <lane id=":J6_9_0" index="0" speed="5.00" length="9.03" shape="134.14,-53.43 133.79,-55.89 132.74,-57.63 130.98,-58.64 128.51,-58.93"/>
    </edge>
    <edge id=":J6_10" function="internal">
        <lane id=":J6_10_0" index="0" speed="5.00" length="14.45" shape="134.14,-53.43 134.04,-67.88"/>
    </edge>
    <edge id=":J6_11" function="internal">
        <lane id=":J6_11_0" index="0" speed="5.00" length="4.04" shape="134.14,-53.43 134.70,-57.32 134.76,-57.42"/>
    </edge>
    <edge id=":J6_15" function="internal">
        <lane id=":J6_15_0" index="0" speed="5.00" length="10.24" shape="134.76,-57.42 136.35,-60.11 139.09,-61.81 142.93,-62.42"/>
    </edge>
    <edge id=":J7_0" function="internal">
        <lane id=":J7_0_0" index="0" speed="5.00" length="14.63" shape="197.17,-68.82 197.17,-54.19"/>
    </edge>
    <edge id=":J7_1" function="internal">
        <lane id=":J7_1_0" index="0" speed="5.00" length="4.25" shape="197.17,-68.82 196.71,-64.94 196.54,-64.65"/>
    </edge>
    <edge id=":J7_6" function="internal">
        <lane id=":J7_6_0" index="0" speed="5.00" length="10.06" shape="196.54,-64.65 195.10,-62.15 192.35,-60.46 188.45,-59.85"/>
    </edge>
    <edge id=":J7_2" function="internal">
        <lane id=":J7_2_0" index="0" speed="5.00" length="9.11" shape="188.40,-63.05 190.89,-63.43 192.65,-64.51 193.68,-66.28 193.97,-68.74"/>
    </edge>
    <edge id=":J7_3" function="internal">
        <lane id=":J7_3_0" index="0" speed="5.00" length="14.34" shape="188.40,-63.05 192.32,-62.54 195.09,-60.90 196.71,-58.11 197.17,-54.19"/>
    </edge>
    <edge id=":J7_4" function="internal">
        <lane id=":J7_4_0" index="0" speed="5.00" length="9.03" shape="193.97,-54.27 193.68,-56.74 192.66,-58.49 190.92,-59.53 188.45,-59.85"/>
    </edge>
    <edge id=":J7_5" function="internal">
        <lane id=":J7_5_0" index="0" speed="5.00" length="14.48" shape="193.97,-54.27 193.97,-68.74"/>
    </edge>
    <edge id=":J8_0" function="internal">
        <lane id=":J8_0_0" index="0" speed="5.00" length="3.82" shape="196.27,-17.30 196.16,-16.34 195.87,-15.45 195.40,-14.64 194.75,-13.91"/>
    </edge>
    <edge id=":J8_1" function="internal">
        <lane id=":J8_1_0" index="0" speed="4.19" length="1.27" shape="192.57,-16.25 192.78,-16.49 192.94,-16.76 193.04,-17.06 193.07,-17.38"/>
    </edge>
    <edge id=":J9_0" function="internal">
        <lane id=":J9_0_0" index="0" speed="5.00" length="9.03" shape="133.35,-109.06 132.96,-111.51 131.88,-113.24 130.11,-114.26 127.66,-114.57"/>
    </edge>
    <edge id=":J9_1" function="internal">
        <lane id=":J9_1_0" index="0" speed="5.00" length="14.17" shape="133.35,-109.06 133.83,-112.92 135.42,-115.72 138.11,-117.46 141.91,-118.14"/>
    </edge>
    <edge id=":J9_2" function="internal">
        <lane id=":J9_2_0" index="0" speed="5.00" length="9.08" shape="142.02,-114.95 139.59,-114.51 137.87,-113.39 136.86,-111.59 136.55,-109.12"/>
    </edge>
    <edge id=":J9_3" function="internal">
        <lane id=":J9_3_0" index="0" speed="5.00" length="14.37" shape="142.02,-114.95 127.66,-114.57"/>
    </edge>
    <edge id=":J9_4" function="internal">
        <lane id=":J9_4_0" index="0" speed="5.00" length="14.31" shape="127.60,-117.77 141.91,-118.14"/>
    </edge>
    <edge id=":J9_5" function="internal">
        <lane id=":J9_5_0" index="0" speed="5.00" length="4.00" shape="127.60,-117.77 131.46,-117.28 131.56,-117.23"/>
    </edge>
    <edge id=":J9_6" function="internal">
        <lane id=":J9_6_0" index="0" speed="5.00" length="10.20" shape="131.56,-117.23 134.24,-115.68 135.94,-112.96 136.55,-109.12"/>
    </edge>

    <edge id="-BV1" from="J5" to="J18" priority="-1">
        <lane id="-BV1_0" index="0" speed="5.00" length="45.66" shape="142.63,41.86 166.01,81.08"/>
        <lane id="-BV1_1" index="1" speed="5.00" length="45.66" shape="139.88,43.50 163.26,82.71"/>
    </edge>
    <edge id="-BV2" from="J0" to="J19" priority="-1">
        <lane id="-BV2_0" index="0" speed="10.00" length="22.47" shape="-100.93,82.75 -96.15,104.71"/>
        <lane id="-BV2_1" index="1" speed="10.00" length="22.47" shape="-104.06,83.43 -99.28,105.39"/>
    </edge>
    <edge id="-BV3" from="J15" to="J11" priority="-1">
        <lane id="-BV3_0" index="0" speed="5.00" length="23.04" shape="92.49,-146.03 93.43,-123.01"/>
    </edge>
    <edge id="-E0" from="J1" to="J0" priority="-1">
        <lane id="-E0_0" index="0" speed="10.00" length="155.65" shape="78.22,76.97 -77.43,76.91"/>
    </edge>
    <edge id="-E1" from="J2" to="J1" priority="-1">
        <lane id="-E1_0" index="0" speed="10.00" length="62.52" shape="84.78,9.81 83.02,72.30"/>
    </edge>
    <edge id="-E10" from="J9" to="J6" priority="-1">
        <lane id="-E10_0" index="0" speed="5.00" length="41.19" shape="136.55,-109.12 137.24,-67.94"/>
    </edge>
    <edge id="-E11" from="J10" to="J9" priority="-1">
        <lane id="-E11_0" index="0" speed="5.00" length="49.20" shape="191.19,-116.71 142.02,-114.95"/>
    </edge>
    <edge id="-E12" from="J7" to="J10" priority="-1">
        <lane id="-E12_0" index="0" speed="5.00" length="46.42" shape="193.97,-68.74 192.85,-115.15"/>
    </edge>
    <edge id="-E13" from="J11" to="J9" priority="-1">
        <lane id="-E13_0" index="0" speed="5.00" length="28.28" shape="99.33,-117.29 127.60,-117.77"/>
    </edge>
    <edge id="-E14" from="J12" to="J11" priority="-1">
        <lane id="-E14_0" index="0" speed="5.00" length="23.05" shape="58.57,-116.74 81.62,-117.04"/>
    </edge>
    <edge id="-E15" from="J13" to="J12" priority="-1">
        <lane id="-E15_0" index="0" speed="5.00" length="50.03" shape="54.88,-61.82 53.83,-111.84"/>
    </edge>
    <edge id="-E16" from="J14" to="J13" priority="-1">
        <lane id="-E16_0" index="0" speed="5.00" length="26.60" shape="86.39,-57.81 59.80,-57.12"/>
    </edge>
    <edge id="-E17" from="J6" to="J14" priority="-1">
        <lane id="-E17_0" index="0" speed="5.00" length="27.72" shape="128.51,-58.93 100.79,-58.18"/>
    </edge>
    <edge id="-E18" from="J11" to="J14" priority="-1">
        <lane id="-E18_0" index="0" speed="5.00" length="41.57" shape="93.91,-108.39 94.97,-66.83"/>
    </edge>
    <edge id="-E2" from="J3" to="J2" priority="-1">
        <lane id="-E2_0" index="0" speed="10.00" length="183.25" shape="-103.25,4.24 80.00,4.88"/>
    </edge>
    <edge id="-E3" from="J0" to="J3" priority="-1">